packages/openpy-fx-tools-dss/openpy_fx_tools_dss-0.1.3.tar.gz/openpy_fx_tools_dss-0.1.3/openpy_fx_tools_dss/Examples/13Bus/xlsx_files/DSS_files_from_xlsx/LineCode_13BusIEEE.dss
New "LineCode.1" nphases=3 rmatrix=[0.086666667 |0.029545455 0.088371212 |0.02907197 0.029924242 0.087405303] xmatrix=[0.204166667 |0.095018939 0.198522727 |0.072897727 0.080227273 0.201723485] cmatrix=[2.851710072 |-0.920293787 3.004631862 |-0.350755566 -0.585011253 2.71134756] baseFreq=60 normamps=400 emergamps=600 faultrate=0.1 pctperm=20 Seasons=1 Ratings=[400.0] 
New "LineCode.2" nphases=3 rmatrix=[0.088371212 |0.02992424 0.087405303 |0.029545455 0.02907197 0.086666667] xmatrix=[0.198522727 |0.080227273 0.201723485 |0.095018939 0.072897727 0.204166667] cmatrix=[3.004631862 |-0.585011253 2.71134756 |-0.920293787 -0.350755566 2.851710072] baseFreq=60 normamps=400 emergamps=600 faultrate=0.1 pctperm=20 Seasons=1 Ratings=[400.0] 
New "LineCode.3" nphases=3 rmatrix=[0.087405303 |0.02907197 0.086666667 |0.029924242 0.029545455 0.088371212] xmatrix=[0.201723485 |0.072897727 0.204166667 |0.080227273 0.095018939 0.198522727] cmatrix=[2.71134756 |-0.350755566 2.851710072 |-0.585011253 -0.920293787 3.004631862] baseFreq=60 normamps=400 emergamps=600 faultrate=0.1 pctperm=20 Seasons=1 Ratings=[400.0] 
New "LineCode.4" nphases=3 rmatrix=[0.087405303 |0.029924242 0.088371212 |0.02907197 0.029545455 0.086666667] xmatrix=[0.201723485 |0.080227273 0.198522727 |0.072897727 0.095018939 0.204166667] cmatrix=[2.71134756 |0.585011253 3.004631862 |-0.350755566 -0.920293787 2.851710072] baseFreq=60 normamps=400 emergamps=600 faultrate=0.1 pctperm=20 Seasons=1 Ratings=[400.0] 
New "LineCode.5" nphases=3 rmatrix=[0.088371212 |0.029545455 0.086666667 |0.029924242 0.02907197 0.087405303] xmatrix=[0.198522727 |0.095018939 0.204166667 |0.080227273 0.072897727 0.201723485] cmatrix=[3.004631862 |-0.920293787 2.851710072 |-0.585011253 -0.350755566 2.71134756] baseFreq=60 normamps=400 emergamps=600 faultrate=0.1 pctperm=20 Seasons=1 Ratings=[400.0] 
New "LineCode.6" nphases=3 rmatrix=[0.086666667 |0.02907197 0.087405303 |0.029545455 0.029924242 0.088371212] xmatrix=[0.204166667 |0.072897727 0.201723485 |0.095018939 0.080227273 0.198522727] cmatrix=[2.851710072 |-0.350755566 2.71134756 |-0.920293787 -0.585011253 3.004631862] baseFreq=60 normamps=400 emergamps=600 faultrate=0.1 pctperm=20 Seasons=1 Ratings=[400.0] 
New "LineCode.7" nphases=2 rmatrix=[0.086666667 |0.02907197 0.087405303] xmatrix=[0.204166667 |0.072897727 0.201723485] cmatrix=[2.569829596 |-0.52995137 2.597460011] baseFreq=60 normamps=400 emergamps=600 faultrate=0.1 pctperm=20 Seasons=1 Ratings=[400.0] 
New "LineCode.8" nphases=2 rmatrix=[0.086666667 |0.02907197 0.087405303] xmatrix=[0.204166667 |0.072897727 0.201723485] cmatrix=[2.569829596 |-0.52995137 2.597460011] baseFreq=60 normamps=400 emergamps=600 faultrate=0.1 pctperm=20 Seasons=1 Ratings=[400.0] 
New "LineCode.9" nphases=1 rmatrix=[0.251742424] xmatrix=[0.255208333] cmatrix=[2.270366128] baseFreq=60 normamps=400 emergamps=600 faultrate=0.1 pctperm=20 Seasons=1 Ratings=[400.0] 
New "LineCode.10" nphases=1 rmatrix=[0.251742424] xmatrix=[0.255208333] cmatrix=[2.270366128] baseFreq=60 normamps=400 emergamps=600 faultrate=0.1 pctperm=20 Seasons=1 Ratings=[400.0] 
New "LineCode.11" nphases=1 rmatrix=[0.251742424] xmatrix=[0.255208333] cmatrix=[2.270366128] baseFreq=60 normamps=400 emergamps=600 faultrate=0.1 pctperm=20 Seasons=1 Ratings=[400.0] 
New "LineCode.12" nphases=3 rmatrix=[0.288049242 |0.09844697 0.29032197 |0.093257576 0.09844697 0.288049242] xmatrix=[0.142443182 |0.052556818 0.135643939 |0.040852273 0.052556818 0.142443182] cmatrix=[33.77150149 |0 33.77150149 |0 0 33.77150149] baseFreq=60 normamps=400 emergamps=600 faultrate=0.1 pctperm=20 Seasons=1 Ratings=[400.0] 
New "LineCode.300" nphases=3 rmatrix=[0.253181818 |0.039791667 0.250719697 |0.040340909 0.039128788 0.251780303] xmatrix=[0.252708333 |0.109450758 0.256988636 |0.094981061 0.086950758 0.255132576] cmatrix=[2.680150309 |-0.769281006 2.5610381 |-0.499507676 -0.312072984 2.455590387] baseFreq=60 normamps=400 emergamps=600 faultrate=0.1 pctperm=20 Seasons=1 Ratings=[400.0] 
New "LineCode.301" nphases=3 rmatrix=[0.365530303 |0.04407197 0.36282197 |0.04467803 0.043333333 0.363996212] xmatrix=[0.267329545 |0.122007576 0.270473485 |0.107784091 0.099204545 0.269109848] cmatrix=[2.572492163 |-0.72160598 2.464381882 |-0.472329395 -0.298961096 2.368881119] baseFreq=60 normamps=400 emergamps=600 faultrate=0.1 pctperm=20 Seasons=1 Ratings=[400.0] 
New "LineCode.302" nphases=1 rmatrix=[0.530208] xmatrix=[0.281345] cmatrix=[2.12257] baseFreq=60 normamps=400 emergamps=600 faultrate=0.1 pctperm=20 Seasons=1 Ratings=[400.0] 
New "LineCode.303" nphases=1 rmatrix=[0.530208] xmatrix=[0.281345] cmatrix=[2.12257] baseFreq=60 normamps=400 emergamps=600 faultrate=0.1 pctperm=20 Seasons=1 Ratings=[400.0] 
New "LineCode.304" nphases=1 rmatrix=[0.363958] xmatrix=[0.269167] cmatrix=[2.1922] baseFreq=60 normamps=400 emergamps=600 faultrate=0.1 pctperm=20 Seasons=1 Ratings=[400.0] 
New "LineCode.400" nphases=3 rmatrix=[0.088205 |0.0312137 0.0901946 |0.0306264 0.0316143 0.0889665] xmatrix=[0.20744 |0.0935314 0.200783 |0.0760312 0.0855879 0.204877] cmatrix=[2.90301 |-0.679335 3.15896 |-0.22313 -0.481416 2.8965] baseFreq=60 normamps=400 emergamps=600 faultrate=0.1 pctperm=20 Seasons=1 Ratings=[400.0] 
New "LineCode.601" nphases=3 rmatrix=[0.065625 |0.029545455 0.063920455 |0.029924242 0.02907197 0.064659091] xmatrix=[0.192784091 |0.095018939 0.19844697 |0.080227273 0.072897727 0.195984848] cmatrix=[3.164838036 |-1.002632425 2.993981593 |-0.632736516 -0.372608713 2.832670203] baseFreq=60 normamps=400 emergamps=600 faultrate=0.1 pctperm=20 Seasons=1 Ratings=[400.0] 
New "LineCode.602" nphases=3 rmatrix=[0.142537879 |0.029924242 0.14157197 |0.029545455 0.02907197 0.140833333] xmatrix=[0.22375 |0.080227273 0.226950758 |0.095018939 0.072897727 0.229393939] cmatrix=[2.863013423 |-0.543414918 2.602031589 |-0.8492585 -0.330962141 2.725162768] baseFreq=60 normamps=400 emergamps=600 faultrate=0.1 pctperm=20 Seasons=1 Ratings=[400.0] 
New "LineCode.603" nphases=2 rmatrix=[0.251780303 |0.039128788 0.250719697] xmatrix=[0.255132576 |0.086950758 0.256988636] cmatrix=[2.366017603 |-0.452083836 2.343963508] baseFreq=60 normamps=400 emergamps=600 faultrate=0.1 pctperm=20 Seasons=1 Ratings=[400.0] 
New "LineCode.604" nphases=2 rmatrix=[0.250719697 |0.039128788 0.251780303] xmatrix=[0.256988636 |0.086950758 0.255132576] cmatrix=[2.343963508 |-0.452083836 2.366017603] baseFreq=60 normamps=400 emergamps=600 faultrate=0.1 pctperm=20 Seasons=1 Ratings=[400.0] 
New "LineCode.605" nphases=1 rmatrix=[0.251742424] xmatrix=[0.255208333] cmatrix=[2.270366128] baseFreq=60 normamps=400 emergamps=600 faultrate=0.1 pctperm=20 Seasons=1 Ratings=[400.0] 
New "LineCode.606" nphases=3 rmatrix=[0.151174242 |0.060454545 0.149450758 |0.053958333 0.060454545 0.151174242] xmatrix=[0.084526515 |0.006212121 0.076534091 |-0.002708333 0.006212121 0.084526515] cmatrix=[48.67459408 |0 48.67459408 |0 0 48.67459408] baseFreq=60 normamps=400 emergamps=600 faultrate=0.1 pctperm=20 Seasons=1 Ratings=[400.0] 
New "LineCode.607" nphases=1 rmatrix=[0.254261364] xmatrix=[0.097045455] cmatrix=[44.70661522] baseFreq=60 normamps=400 emergamps=600 faultrate=0.1 pctperm=20 Seasons=1 Ratings=[400.0] 
New "LineCode.721" nphases=3 rmatrix=[0.055416667 |0.012746212 0.050113636 |0.006382576 0.012746212 0.055416667] xmatrix=[0.037367424 |-0.006969697 0.035984848 |-0.007897727 -0.006969697 0.037367424] cmatrix=[80.27484728 |0 80.27484728 |0 0 80.27484728] baseFreq=60 normamps=400 emergamps=600 faultrate=0.1 pctperm=20 Seasons=1 Ratings=[400.0] 
New "LineCode.722" nphases=3 rmatrix=[0.089981061 |0.030852273 0.085 |0.023371212 0.030852273 0.089981061] xmatrix=[0.056306818 |-0.006174242 0.050719697 |-0.011496212 -0.006174242 0.056306818] cmatrix=[64.2184109 |0 64.2184109 |0 0 64.2184109] baseFreq=60 normamps=400 emergamps=600 faultrate=0.1 pctperm=20 Seasons=1 Ratings=[400.0] 
New "LineCode.723" nphases=3 rmatrix=[0.245 |0.092253788 0.246628788 |0.086837121 0.092253788 0.245] xmatrix=[0.127140152 |0.039981061 0.119810606 |0.028806818 0.039981061 0.127140152] cmatrix=[37.5977112 |0 37.5977112 |0 0 37.5977112] baseFreq=60 normamps=400 emergamps=600 faultrate=0.1 pctperm=20 Seasons=1 Ratings=[400.0] 
New "LineCode.724" nphases=3 rmatrix=[0.396818182 |0.098560606 0.399015152 |0.093295455 0.098560606 0.396818182] xmatrix=[0.146931818 |0.051856061 0.140113636 |0.040208333 0.051856061 0.146931818] cmatrix=[30.26701029 |0 30.26701029 |0 0 30.26701029] baseFreq=60 normamps=400 emergamps=600 faultrate=0.1 pctperm=20 Seasons=1 Ratings=[400.0] 
New "LineCode.mtx601" nphases=3 units=mi rmatrix=[0.3465 |0.156 0.3375 |0.158 0.1535 0.3414] xmatrix=[1.0179 |0.5017 1.0478 |0.4236 0.3849 1.0348] cmatrix=[2.8 |-0.6 2.8 |-0.6 -0.6 2.8] baseFreq=60 normamps=400 emergamps=600 faultrate=0.1 pctperm=20 Seasons=1 Ratings=[400.0] 
New "LineCode.mtx602" nphases=3 units=mi rmatrix=[0.7526 |0.158 0.7475 |0.156 0.1535 0.7436] xmatrix=[1.1814 |0.4236 1.1983 |0.5017 0.3849 1.2112] cmatrix=[2.8 |-0.6 2.8 |-0.6 -0.6 2.8] baseFreq=60 normamps=400 emergamps=600 faultrate=0.1 pctperm=20 Seasons=1 Ratings=[400.0] 
New "LineCode.mtx603" nphases=2 units=mi rmatrix=[1.3238 |0.2066 1.3294] xmatrix=[1.3569 |0.4591 1.3471] cmatrix=[2.8 |-0.6 2.8] baseFreq=60 normamps=400 emergamps=600 faultrate=0.1 pctperm=20 Seasons=1 Ratings=[400.0] 
New "LineCode.mtx604" nphases=2 units=mi rmatrix=[1.3238 |0.2066 1.3294] xmatrix=[1.3569 |0.4591 1.3471] cmatrix=[2.8 |-0.6 2.8] baseFreq=60 normamps=400 emergamps=600 faultrate=0.1 pctperm=20 Seasons=1 Ratings=[400.0] 
New "LineCode.mtx605" nphases=1 units=mi rmatrix=[1.3292] xmatrix=[1.3475] cmatrix=[2.8] baseFreq=60 normamps=400 emergamps=600 faultrate=0.1 pctperm=20 Seasons=1 Ratings=[400.0] 
New "LineCode.mtx606" nphases=3 units=mi rmatrix=[0.791721 |0.318476 0.781649 |0.28345 0.318476 0.791721] xmatrix=[0.438352 |0.0276838 0.396697 |-0.0184204 0.0276838 0.438352] cmatrix=[383.948 |0 383.948 |0 0 383.948] baseFreq=60 normamps=400 emergamps=600 faultrate=0.1 pctperm=20 Seasons=1 Ratings=[400.0] 
New "LineCode.mtx607" nphases=1 units=mi rmatrix=[1.3425] xmatrix=[0.5124] cmatrix=[236.0] baseFreq=60 normamps=400 emergamps=600 faultrate=0.1 pctperm=20 Seasons=1 Ratings=[400.0] 
